LTspice 26.0.1 for Windows
Circuit: C:\Users\damia\OneDrive\바탕 화면\rim2025.net
Start Time: Tue Feb 24 00:26:25 2026
solver = Normal
Maximum thread count: 20
tnom = 27
temp = 27
method = trap
WARNING: Node n003 is floating.

.OP point found by inspection.
.OP point found by inspection.
Total elapsed time: 0.062 seconds.

Files loaded:
C:\Users\damia\OneDrive\바탕 화면\rim2025.net

